[globalOptions]


#~ outputDir = /scratch/depfg/sutan101/test_pcrglobwb_gmglob_30sec/australia_test_satareafrac_w5e5/test_small_area/
outputDir    = /scratch/depfg/otoo0001/transient_analysis/australia_test_satareafrac_w5e5/australia_30sec/


# - edwin tries to merge all files on "pcrglobwb_gmglob_input" to "pcrglobwb_input_arise"
inputDir    = /scratch/depfg/sutan101/data/pcrglobwb_input_arise/develop/



# Map of clone (must be provided in PCRaster maps)

cloneMap    = global_30sec/cloneMaps/australia_30sec.map
#~ cloneMap = global_30sec/cloneMaps/australia_30sec_small-clone-1deg.map


# The area/landmask of interest:
# If None, area/landmask is limited for cells with ldd value. 
landmask    = None
# - TODO: Define the landmask limited to the area modeled by 5 arcmin run of the GMD paper. 

# netcdf attributes for output files:
institution = Department of Physical Geography, Utrecht University
title       = PCR-GLOBWB-MODFLOW offline coupling - 30sec 
description = by Edwin H. Sutanudjaja (contact: e.h.sutanudjaja@uu.nl) 


startTime = 1979-01-01
endTime   = 2019-12-31
# Format: YYYY-MM-DD ; The model runs on daily time step.

modflowOfflineCoupling = True

#~ # temporary modflow folder (optional):
#~ tmp_modflow_dir = /dev/shm/edwin/pcrglobwb_modflow/

[groundwaterOptions]

debugWaterBalance = True

# - ulysses/arise groundwater properties
groundwaterPropertiesNC = None
specificYield  = global_30sec/groundwater/properties/version_202102XX/specific_yield_aquifer_filled_30sec.nc
kSatAquifer    = global_30sec/groundwater/properties/version_202102XX/k_conductivity_aquifer_filled_30sec.nc
recessionCoeff = global_30sec/groundwater/properties/version_202102XX/recession_coefficient_30sec.nc

#~ sutan101@login01.cluster:/scratch/depfg/sutan101/data/pcrglobwb_gmglob_input/develop/global_30sec/groundwater/properties/version_202102XX$ ls -lah *
#~ -rw-r--r-- 1 sutan101 depfg 3.5G Mar  1 16:32 k_conductivity_aquifer_filled_30sec.nc
#~ -rw-r--r-- 1 sutan101 depfg 3.5G Mar  1 16:32 recession_coefficient_30sec.nc
#~ -rw-r--r-- 1 sutan101 depfg   78 Mar  1 16:35 source.txt
#~ -rw-r--r-- 1 sutan101 depfg 3.5G Mar  1 16:33 specific_yield_aquifer_filled_30sec.nc

# minimum value for groundwater recession coefficient (day-1) 
# - about 11 years
minRecessionCoeff = 0.00025
#~ # - about 27 years
#~ minRecessionCoeff = 1.0e-4

# river bed properties - optional
# - river bed conductivity (m.day-1) ; the default value is taken from kSatAquifer
riverBedConductivity = Default
# - river bed thickness (m) ; the default value is 0.1 m
riverBedThickness    = 0.1
# - minimum river bed resistance (day) ; the default value is 1 day
minimumBedResistance = 1.0

# total groundwater thickness (m)
estimateOfTotalGroundwaterThickness    = global_30sec/groundwater/aquifer_thickness_estimate/version_2020-09-XX/thickness_05min_remapbil_to_30sec_filled_with_pcr_correct_lat.nc
# - TODO: Improve this with SoilGrids???

# minimum and maximum total groundwater thickness 
minimumTotalGroundwaterThickness       = 50.
maximumTotalGroundwaterThickness       = 1000.

# assumption for the minimum transmissivity value (unit: m2/day) that can be extracted (via capillary rise and/or groundwater abstraction) - optional
# - if None, abstraction and/or capillary rise can always occur everywhere and unlimited
minimumTransmissivityForProductiveAquifer = 50.
# - For a run with MODFLOW (especially an offline coupling run), abstraction can still occur for these cells. Yet, the abstraction will not be to the lowermost layer only, but it will be distribued to both layers based on transmissivities.

doNotExtrapolateThickness = True


[modflowParameterOptions]

# using varying DELR and DELC in order to correct horizontal anisotrophy of lat/lon cells (experimental)
using_varying_DELR_DELC = True
estimate_of_cell_horizontal_size_in_meter = global_30sec/others/estimate_cell_dimension/30sec/horizontal_size_avg_correct_lat.nc
estimate_of_cell_vertical_size_in_meter   = global_30sec/others/estimate_cell_dimension/30sec/vertical_size_correct_lat.nc

#~ # using constant and equal DELR and DELC in meter
#~ using_constant_equal_DELR_and_DELC_in_meter = True

# number of modflow layers:
number_of_layers = 2

# Total thickness of groundwater (from both layers) is defined in the section "groundwaterOptions".

# The default values for aquifer properties (i.e. conductivities and storage coefficients) are defined in the field "groundwaterPropertiesNC" of the section "groundwaterOptions". Yet, these default values can be overwritten by setting the following information. 

# confining layer (deklaag) properties (thickness in meter, conductivity in m/day, resistance in day) 
#
# - confining layer thickness
usePreDefinedConfiningLayer               = True
confiningLayerThickness                   = global_30sec/groundwater/confining_layer_parameters/version_2020-09-XX/confining_layer_thickness_version_2016_remapbil_to_30sec.nc
# - TODO: Improve this with SoilGrids.
#
# - confining layer horizontal conductivity (m/day)
confiningLayerHorizontalConductivity      = Default
# * If Default (or not defined), the default values from the field of "groundwaterPropertiesNC" of the section "groundwaterOptions" will be used. 
#
# - confining layer vertical conductivity (m/day)
confiningLayerVerticalConductivity        = Default
# * If Default (or not defined), the default values from the field of "groundwaterPropertiesNC" of the section "groundwaterOptions" will be used. 
#~ confiningLayerVerticalConductivity     = 0.00847584
#~ # * PS: 0.00847584 estimated from f.g. consolidated of DOI: 10.1029/2010GL045565
#
# - maximum confining layer conductivity
maximumConfiningLayerVerticalConductivity = 0.005
# * PS: 0.005 used in WRI groundwater risk runs
#~ maximumConfiningLayerVerticalConductivity = 0.0008
#~ # * PS: This is the latest value used in Philip's and Jorge's runs. TODO: Please check this (e.g. you may want to make this consistent with the ones from Jarno).  
#
#
# - resistance (day) 
# * By default, the resistance (1/VCONT) between two layers equals to confiningLayerThickness (m) / confiningLayerVerticalConductivity (m.day-1)
# * Yet, we can limit this field with the following the maximum value (day):
maximumConfiningLayerResistance           = 100000.
# 
# - primary storage coefficient (dimensionless)
confiningLayerPrimaryStorageCoefficient   = Default

# aquifer layer properties
# 
# - aquifer layer horizontal conductivity (m/day)
aquiferLayerHorizontalConductivity        = Default
# * If Default (or not defined), the default values from the field of "groundwaterPropertiesNC" of the section "groundwaterOptions" will be used. 
# 
# - primary storage coefficient (dimensionless) for confined aquifer only
#~ aquiferLayerPrimaryStorageCoefficient  = Default
# * If Default (or not defined), the default specific yield values from the field of "groundwaterPropertiesNC" of the section "groundwaterOptions" will be used. 
aquiferLayerPrimaryStorageCoefficient    = 0.003
# * PS: 0.003 based on de Graaf et al., 2017
#~ aquiferLayerPrimaryStorageCoefficient = 0.001
#~ # * The aquiferLayerPrimaryStorageCoefficient value will be set to the confined aquifer cells only. Cells without confining layer have their aquiferLayerPrimaryStorageCoefficient values equal to the specific yield values from the field of "groundwaterPropertiesNC".
#
# - secondary storage coefficient (dimensionless)
aquiferLayerSecondaryStorageCoefficient    = None
#~ aquiferLayerSecondaryStorageCoefficient = Default
# If aquiferLayerSecondaryStorageCoefficient is defined (or not equal to None or False), we will use the layer type (LAYCON) 2. Note that for this layer type, storage coefficient values may alter from their primary to the secondary ones (and vice versa), but transmissivities constantly based on the layer thickness. 
# 
# - PS: The thickness of aquifer layer is totalGroundwaterThickness - confiningLayerThickness

# option to include/conceptualize aquitard, but only below the confining layer, that provides higher resistance
aquitardResistance = Default
# * If Default, the default value (day) is estimated by dividing half of (0.5) bottom layer thickness over kSatAquifer (defined in groundwaterPropertiesNC). Moreover, it is assumed that the extent of aquitard is the same as confining layer thickness (confiningLayerThickness > 0).
# # TODO (but not for land subsidence model runs): Provide a possibility to assign a map of aquitardResistance directly. 

# general rule for minimum and maximum values for transmissivities (unit: m/day)
minimumTransmissivity = 10.0
maximumTransmissivity = 100000.0

# elevation/topographical parameters, e.g. average DEM and minimum DEM within a cell
topographyNC   = global_30sec/landSurface/topography/merit_dem_processed/version_2021-02-XX/maps_covered_with_zero/topography_parameters_30sec_february_2021_global_covered_with_zero.nc
#~ # - if topographyNC is None, the following must be defined
#~ dem_minimum = global_30sec/landSurface/topography/
#~ dem_average = global_30sec/landSurface/topography/

# channel/routing parameters (these input values/files would be used to convert discharge to surface water elevation, based on Manning's equation) 
channelNC         = global_30sec/routing/channel_properties/version_2021-02-XX/maps_covered_with_zero/channel_parameters_30sec_february_2021_global_covered_with_zero.nc
#~ # - if channelNC is None, the following must be defined
#~ dem_floodplain = global_30sec/routing/channel_properties/
#~ bankfull_width = global_30sec/routing/channel_properties/
#~ bankfull_depth = global_30sec/routing/channel_properties/
#~ gradient       = global_30sec/routing/channel_properties/
#~ dem_riverbed   = global_30sec/routing/channel_properties/

# the manning coefficient used for converting discharge values to surface water elevation values
manningsN = 0.04
#
# - minimum channel gradient (m.m-1, optional) - this is recommended to avoid too high surface water level
minimumChannelGradient = 0.00005
# - minimum channel width (m, optional) - this is recommended, not only to avoid too high surface water level, but also to set minimum river bed conductance 
minimumChannelWidth    = 5.0 

# option to exclude river infiltration
minimumWidthOfRiversWithInfiltration = 10.0
# - TODO: Please check whether we have to activate this (e.g. please check Jarno's run and your HESS paper for the Rhine-Meuse).

# lakes and reservoir parameters
onlyNaturalWaterBodies = False
waterBodyInputNC       = global_30sec/routing/surface_water_bodies/version_2020-05-XX/lakes_and_reservoirs_30sec_global_2019_version_202005XX.nc

#~ sutan101@gpu038.cluster:/scratch/depfg/sutan101/data/pcrglobwb_gmglob_input/develop/global_30sec/routing/surface_water_bodies/version_2020-05-XX$ ls -lah
#~ total 233G
#~ drwxr-xr-x 3 sutan101 depfg    6 Mar  1 09:54 .
#~ drwxr-xr-x 3 sutan101 depfg    1 Jan 28 16:27 ..
#~ -r--r--r-- 1 sutan101 depfg 209G Jan 28 19:05 lakes_and_reservoirs_30sec_global_2010_to_2019_version_202005XX.nc
#~ -r--r--r-- 1 sutan101 depfg  21G Jan 28 19:09 lakes_and_reservoirs_30sec_global_2019_version_202005XX.nc
#~ -r--r--r-- 1 sutan101 depfg 1.8G Jan 28 19:10 lddsound_30sec_version_202005XX_correct_lat.nc
#~ -r--r--r-- 1 sutan101 depfg 890M Jan 28 19:09 lddsound_30sec_version_202005XX.map
#~ -r--r--r-- 1 sutan101 depfg 891M Jan 28 19:10 lddsound_30sec_version_202005XX.nc
#~ drwxr-xr-x 2 sutan101 depfg   19 Mar  1 10:19 maps

# drainage direction map
lddMap      = global_30sec/routing/surface_water_bodies/version_2020-05-XX/lddsound_30sec_version_202005XX_correct_lat.nc


# cell area (unit: m2)
cellAreaMap = global_30sec/others/estimate_cell_dimension/30sec/cdo_grid_area_30sec_map_correct_lat.nc

#~ # cell area (unit: m2) - THIS somehow does not work
#~ cellAreaMap = global_30sec/others/estimate_cell_dimension/30sec/cdo_gridarea_30sec.nc



# option to ignore negative capillary rise during MODFLOW simulation
ignoreCapRise = True

doNotExtrapolateParameters = True

# some parameters for the PCG solver (optional)
#~ DAMP              = 1.00,0.75
#~ DAMP              = 0.75
#~ DAMP_steady_state = 0.75,0.60
#~ DAMP_steady_state = 0.60
# - for steady-state model, please do not use too many RCLOSE
#~ RCLOSE = 1e4,1e5,1e9
#~ HCLOSE = 0.001,0.01,0.1,0.2,0.5,1.0


# the following options were used for Jorge's run
#~ DAMP              = 0.75
#~ DAMP_steady_state = 0.75,0.60
#~ HCLOSE            = 0.001,0.001,0.005,0.01,0.1,0.5,1.0
#~ RCLOSE            = 0.01,0.1,1,100,10000,100000,10000000

DAMP              = 0.75
DAMP_steady_state = 0.75,0.60
#~ HCLOSE         = 0.001,0.005,0.01,0.1,0.5,1.0
HCLOSE            = 0.001,0.01,0.1
RCLOSE            = 10,100,10000,100000,10000000


#~ # pre-factors to adjust several values:
#~ linear_multiplier_for_storage_coefficients    = 1.0
#~ log_10_multiplier_for_transmissivities        = 0.0
#~ linear_multiplier_for_groundwater_recharge    = 1.0
#~ linear_multiplier_for_groundwater_abstraction = 1.0

#~ # pre-factor to include aquitards
#~ log_10_multiplier_for_resistance_values       = 0.0
#~ log_10_multiplier_for_resistance_values       = 0.69897


#~ log_10_multiplier_for_transmissivities     = LOG_10_FACTOR_FOR_KD
#~ log_10_multiplier_for_resistance_values    = LOG_10_FACTOR_FOR_RESISTANCE
#~ linear_multiplier_for_storage_coefficients = LINEAR_FACTOR_FOR_STORAGE_COEF


#~ # pre-factors to adjust several values:
#~ log_10_multiplier_for_transmissivities        = 0.0
#~ log_10_multiplier_for_resistance_values       = 1.0
#~ linear_multiplier_for_storage_coefficients    = 1.0
#~ linear_multiplier_for_groundwater_recharge    = 1.0
#~ linear_multiplier_for_groundwater_abstraction = 1.0


#~ # pre-factors to adjust several values:
#~ log_10_multiplier_for_transmissivities      = LOG_10_FACTOR_FOR_KD
#~ log_10_multiplier_for_resistance_values     = LOG_10_FACTOR_FOR_RESISTANCE
#~ linear_multiplier_for_groundwater_recharge  = LINEAR_FACTOR_FOR_GW_RECHARGE

log_10_multiplier_for_transmissivities      = 0.0
log_10_multiplier_for_resistance_values     = 0.0
linear_multiplier_for_groundwater_recharge  = 1.0


#~ log_10_multiplier_for_river_bed_conductance = LOG_10_FACTOR_FOR_RIVER_BED_CONDUCTANCE
log_10_multiplier_for_river_bed_conductance    = 0.0


[modflowSteadyStateInputOptions]

# Using the following input from 5 arcmin PCR-GLOBWB

estimateDischargeFromRunoff = True

# The following input maps used for the steady state run 
# - average discharge (unit: m3/s)
avgDischargeInputMap              = None
# - average runoff (unit: m/day)
avgRunoffInputMap                 = /scratch/depfg/sutan101/pgb-aus-nicole-w5e5/average_totalRunoff_mperday_1979-2019.nc.map
# - average groundwater recharge (unit: m/day)
avgGroundwaterRechargeInputMap    = /scratch/depfg/sutan101/pgb-aus-nicole-w5e5/average_gwRecharge_mperday_1979-2019.nc.map
# - average groundwater abstraction (unit: m/day)
avgGroundwaterAbstractionInputMap = 0.0
# - average channel storage (unit: m3) - optional
avgChannelStorageInputMap         = None 

# - satAreaFrac input, this is required for estimating drain elevation (surface water height)
satAreaFracInputMap               = /scratch/depfg/sutan101/pgb-aus-nicole-w5e5/average_satAreaFrac_1979-2019.nc.map


# initial estimate for groundwater head (unit: m)
usingInitialHeadEstimate = False
groundwaterHeadLayer1Estimate = None
groundwaterHeadLayer2Estimate = None

# option to ignore negative capillary rise during a steady state simulation
ignoreCapRiseSteadyState = True

# option to introduce extra spin-up years (using transient simulation with constant input with 365 * 10 day stress period)
#~ extraSpinUpYearsWith10YearStressPeriod = 7
extraSpinUpYearsWith10YearStressPeriod    = 0
# - a global simulation takes more than 6 hour calculation time per 10 years (with semi-weekly time steps)

# option to introduce extra spin-up years (using transient simulation with constant input with 365 day stress period)
#~ extraSpinUpYearsWith365DayStressPeriod = 27
extraSpinUpYearsWith365DayStressPeriod    = 0
# - a global simulation takes about 35 minute calculation time per year

# option to introduce extra spin-up years (using transient simulation with constant input with 30 day stress period)
#~ extraSpinUpYearsWith30DayStressPeriod  = 3
extraSpinUpYearsWith30DayStressPeriod     = 0
# - a global simulation takes about 20 minute calculation time per month



[modflowTransientInputOptions]

estimateDischargeFromRunoff       = True
dischargeInputNC                  = None

# runoff in m/month
runoffInputNC                     = /scratch/depfg/otoo0001/test_australia_w5e5/netcdf/totalRunoff_monthTot_output.nc
valuesRunoffInMonthlyTotal        = True

# recharge and asbtraction in m/month
groundwaterRechargeInputNC        = /scratch/depfg/otoo0001/test_australia_w5e5/netcdf/gwRecharge_monthTot_output.nc
groundwaterAbstractionInputNC     = /scratch/depfg/otoo0001/test_australia_w5e5/netcdf/totalGroundwaterAbstraction_monthTot_output.nc
valuesRechargeAndAbstractionInMonthlyTotal = True

channelStorageInputNC             = None

# - satAreaFrac input, this is required for estimating drain elevation (surface water height)
satAreaFracInputNC                = /scratch/depfg/otoo0001/test_australia_w5e5/netcdf/satAreaFrac_monthAvg_output.nc
# - additional input files that are also required
# --- files for relative elevation (above minimum dem) - NOTE that this should be at the SAME RESOLUTION AS satAreaFracInputNC
relativeElevationFiles  = /scratch/depfg/sutan101/data/pcrglobwb_input_arise/develop/global_05min/landSurface/topography/version_202104XX_from_merit_dem/maps_covered_with_zero/dzRel%04d_topography_parameters_5min_april_2021_global_covered_with_zero.map
relativeElevationLevels = 0.0, 0.01, 0.05, 0.10, 0.20, 0.30, 0.40, 0.50, 0.60, 0.70, 0.80, 0.90, 1.00
minimumDEM              = /scratch/depfg/sutan101/data/pcrglobwb_input_arise/develop/global_05min/landSurface/topography/version_202104XX_from_merit_dem/maps_covered_with_zero/dem_minimum_topography_parameters_5min_april_2021_global_covered_with_zero.map



# initial conditions for groundwater head (unit: m)
groundwaterHeadLayer1Ini = None
groundwaterHeadLayer2Ini = None

usingPredefinedInitialHead = False
# - if False, the initial groundwater head(s) will be based on the steady state simulation using the input defined in modflowSteadyStateInputOptions 
# - if True , the following initial conditions of the groundwater head will be based on the steady state simulation using the input defined in modflowSteadyStateInputOptions 
# - Note: For the online coupling PCR-GLOBWB-MODFLOW, we have to first define the initial conditions of groundwater head (usingPredefinedInitialHead = True)


#######################################################################################################################################################

[reportingForModflowOptions]

# output files from modflow calculation that will be written in the disk in netcdf files:
outMonthEndNC = groundwaterHead,groundwaterHeadLayer1,groundwaterDepthLayer1,groundwaterHeadLayer2,groundwaterDepthLayer2,relativeGroundwaterHead,groundwaterVolumeEstimate,accuGroundwaterVolumeEstimate,groundwaterThicknessEstimate,baseflow
outAnnuaEndNC = None

#~ # netcdf format and zlib setup
#~ formatNetCDF = NETCDF4
#~ zlib = True

# At this moment, we cannot report the following. 
outDailyTotNC = None
outMonthTotNC = None
outMonthAvgNC = None
outAnnuaTotNC = None
outAnnuaAvgNC = None
outMonthMaxNC = None
outAnnuaMaxNC = None

# option to make/copy backup of modflow files
make_backup_of_modflow_files = True



#~ [oldReportingOptions]
#~ # used for debugging only
#~ 
#~ # for MODFLOW debugging
#~ outDailyTotNC = None
#~ outMonthTotNC = None
#~ outMonthAvgNC = None
#~ outMonthEndNC = gwAbstractionUsed,transmissivity_layer_1_landmask_only,transmissivity_layer_2_landmask_only,kSatAquifer,abstraction_layer_1,abstraction_layer_2,resistance_between_layers,specificYield,riverLeakageLayer1,riverLeakageLayer2,drainLayer1,drainLayer2,surface_water_elevation,surface_water_bed_elevation_used,bed_conductance_used,drain_conductance,drain_elevation_lowermost_layer,drain_elevation_uppermost_layer
#~ outAnnuaTotNC = None
#~ outAnnuaAvgNC = None
#~ outAnnuaEndNC = gwAbstractionUsed,transmissivity_layer_1_landmask_only,transmissivity_layer_2_landmask_only,kSatAquifer,abstraction_layer_1,abstraction_layer_2,resistance_between_layers,specificYield,riverLeakageLayer1,riverLeakageLayer2,drainLayer1,drainLayer2,surface_water_elevation,surface_water_bed_elevation_used,bed_conductance_used,drain_conductance,drain_elevation_lowermost_layer,drain_elevation_uppermost_layer

