[globalOptions]

# Set the pcrglobwb output directory in an absolute path.
#~ outputDir = {globgm_dir}/map_input/steady-state/$tile$/
#~ outputDir = /scratch-shared/edwinaha/globgm_tile_map_files_for_arfan/map_input/steady-state/average/$tile$/

outputDir    = /scratch-shared/edwin/test_globgm/satareafrac/


# Set the input directory map in an absolute path.
#~ inputDir = {yoda_input}

#~ # - on eejit
#~ inputDir = /eejit/depfg/sutan101/data/pcrglobwb_input_arise/develop/

# - on snellius
inputDir    = /projects/0/dfguu/users/edwin/data/pcrglobwb_input_arise/develop/


# Map of clone (must be provided in PCRaster maps)
# - Spatial resolution and coverage are based on this map:
#~ cloneMap = {yoda_input}/clonemap_15deg/map/$tile$.map

#~ cloneMap = global_30sec/cloneMaps/clonemap_15deg_map_globgm_jarno/$tile$.map

cloneMap = global_30sec/cloneMaps/australia_30sec.map
#~ cloneMap = global_30sec/cloneMaps/australia_30sec_small-clone-1deg.map


# The area/landmask of interest:
# If None, area/landmask is limited for cells with ldd value.
landmask    = None

# netcdf attributes for output files:
institution = Department of Physical Geography, Utrecht University
title       = PCR-GLOBWB-MODFLOW offline coupling
description = by Edwin H. Sutanudjaja (contact: globgm.info@gmail.com)

startTime = 2000-01-01
endTime   = 2000-01-01
# Format: YYYY-MM-DD ; The model runs on daily time step.

modflowOfflineCoupling = True


[groundwaterOptions]

debugWaterBalance = True

# - ulysses/arise groundwater properties
groundwaterPropertiesNC = None
specificYield  = global_30sec/groundwater/properties/version_202312XX/specific_yield_aquifer_30sec_filled_v20231205.map
kSatAquifer    = global_30sec/groundwater/properties/version_202312XX/k_conductivity_aquifer_30sec_filled_v20231205.map
recessionCoeff = global_30sec/groundwater/properties/version_202312XX/recession_coefficient_30sec_filled_v20231205.map

# minimum value for groundwater recession coefficient (day-1) 
# - about 11 years
minRecessionCoeff = 0.00025
#~ # - about 27 years
#~ minRecessionCoeff = 1.0e-4

# river bed properties - optional
# - river bed conductivity (m.day-1) ; the default value is taken from kSatAquifer
riverBedConductivity = Default
# - river bed thickness (m) ; the default value is 0.1 m
riverBedThickness    = 0.1
# - minimum river bed resistance (day) ; the default value is 1 day
minimumBedResistance = 1.0

# total groundwater thickness (m)
estimateOfTotalGroundwaterThickness = global_30sec/groundwater/aquifer_thickness_estimate/version_2020-09-XX/thickness_05min_remapbil_to_30sec_filled_with_pcr_correct_lat.nc

# minimum and maximum total groundwater thickness 
minimumTotalGroundwaterThickness       = 50.
maximumTotalGroundwaterThickness       = 1000.

# assumption for the minimum transmissivity value (unit: m2/day) that can be extracted (via capillary rise and/or groundwater abstraction) - optional
# - if None, abstraction and/or capillary rise can always occur everywhere and unlimited
minimumTransmissivityForProductiveAquifer = 50.
# - For a run with MODFLOW (especially an offline coupling run), abstraction can still occur for these cells. Yet, the abstraction will not be to the lowermost layer only, but it will be distribued to both layers based on transmissivities.

doNotExtrapolateThickness = True


[modflowParameterOptions]

#~ # using varying DELR and DELC in order to correct horizontal anisotrophy of lat/lon cells (experimental)
#~ using_varying_DELR_DELC = True
#~ estimate_of_cell_horizontal_size_in_meter = global_30sec/others/estimate_cell_dimension/30sec/horizontal_size_avg_correct_lat.nc
#~ estimate_of_cell_vertical_size_in_meter   = global_30sec/others/estimate_cell_dimension/30sec/vertical_size_correct_lat.nc

# using varying DELR and DELC in order to correct horizontal anisotrophy of lat/lon cells (experimental)
using_varying_DELR_DELC = False
#~ estimate_of_cell_horizontal_size_in_meter = global_30sec/others/estimate_cell_dimension/30sec/horizontal_size_avg_correct_lat.nc
#~ estimate_of_cell_vertical_size_in_meter   = global_30sec/others/estimate_cell_dimension/30sec/vertical_size_correct_lat.nc

#~ # using constant and equal DELR and DELC in meter
#~ using_constant_equal_DELR_and_DELC_in_meter = True

# number of modflow layers:
number_of_layers = 2

# Total thickness of groundwater (from both layers) is defined in the section "groundwaterOptions".

# The default values for aquifer properties (i.e. conductivities and storage coefficients) are defined in the field "groundwaterPropertiesNC" of the section "groundwaterOptions". Yet, these default values can be overwritten by setting the following information. 

# confining layer (deklaag) properties (thickness in meter, conductivity in m/day, resistance in day) 
#
# - confining layer thickness
usePreDefinedConfiningLayer               = True
confiningLayerThickness                   = global_30sec/groundwater/confining_layer_parameters/version_2020-09-XX/confining_layer_thickness_version_2016_remapbil_to_30sec.nc
# - TODO: Improve this with SoilGrids.
#
# - confining layer horizontal conductivity (m/day)
confiningLayerHorizontalConductivity      = Default
# * If Default (or not defined), the default values from the field of "groundwaterPropertiesNC" of the section "groundwaterOptions" will be used. 
#
# - confining layer vertical conductivity (m/day)
confiningLayerVerticalConductivity        = Default
# * If Default (or not defined), the default values from the field of "groundwaterPropertiesNC" of the section "groundwaterOptions" will be used. 
#~ confiningLayerVerticalConductivity     = 0.00847584
#~ # * PS: 0.00847584 estimated from f.g. consolidated of DOI: 10.1029/2010GL045565
#
# - maximum confining layer conductivity
maximumConfiningLayerVerticalConductivity = 0.005
# * PS: 0.005 used in WRI groundwater risk runs, also used in Jarno's GLOBGM run
#
# - resistance (day) 
# * By default, the resistance (1/VCONT) between two layers equals to confiningLayerThickness (m) / confiningLayerVerticalConductivity (m.day-1)
# * Yet, we can limit this field with the following the maximum value (day):
maximumConfiningLayerResistance           = 100000.
# 
# - primary storage coefficient (dimensionless)
confiningLayerPrimaryStorageCoefficient   = Default

# aquifer layer properties
# 
# - aquifer layer horizontal conductivity (m/day)
aquiferLayerHorizontalConductivity        = Default
# * If Default (or not defined), the default values from the field of "groundwaterPropertiesNC" of the section "groundwaterOptions" will be used. 
# 
# - primary storage coefficient (dimensionless) for confined aquifer only
#~ aquiferLayerPrimaryStorageCoefficient  = Default
# * If Default (or not defined), the default specific yield values from the field of "groundwaterPropertiesNC" of the section "groundwaterOptions" will be used. 
aquiferLayerPrimaryStorageCoefficient    = 0.003
# * PS: 0.003 based on de Graaf et al., 2017
#~ aquiferLayerPrimaryStorageCoefficient = 0.001
#~ # * The aquiferLayerPrimaryStorageCoefficient value will be set to the confined aquifer cells only. Cells without confining layer have their aquiferLayerPrimaryStorageCoefficient values equal to the specific yield values from the field of "groundwaterPropertiesNC".
#
# - secondary storage coefficient (dimensionless)
aquiferLayerSecondaryStorageCoefficient    = None
#~ aquiferLayerSecondaryStorageCoefficient = Default
# If aquiferLayerSecondaryStorageCoefficient is defined (or not equal to None or False), we will use the layer type (LAYCON) 2. Note that for this layer type, storage coefficient values may alter from their primary to the secondary ones (and vice versa), but transmissivities constantly based on the layer thickness. 
# 
# - PS: The thickness of aquifer layer is totalGroundwaterThickness - confiningLayerThickness

# option to include/conceptualize aquitard, but only below the confining layer, that provides higher resistance
aquitardResistance = Default
# * If Default, the default value (day) is estimated by dividing half of (0.5) bottom layer thickness over kSatAquifer (defined in groundwaterPropertiesNC). Moreover, it is assumed that the extent of aquitard is the same as confining layer thickness (confiningLayerThickness > 0).
# # TODO (but not for land subsidence model runs): Provide a possibility to assign a map of aquitardResistance directly. 

# general rule for minimum and maximum values for transmissivities (unit: m/day)
minimumTransmissivity = 10.0
maximumTransmissivity = 100000.0

# elevation/topographical parameters, e.g. average DEM and minimum DEM within a cell
topographyNC   = global_30sec/landSurface/topography/merit_dem_processed/version_2021-02-XX/maps_covered_with_zero/topography_parameters_30sec_february_2021_global_covered_with_zero.nc
#~ # - if topographyNC is None, the following must be defined
#~ dem_minimum = global_30sec/landSurface/topography/
#~ dem_average = global_30sec/landSurface/topography/

# channel/routing parameters (these input values/files would be used to convert discharge to surface water elevation, based on Manning's equation) 
channelNC         = global_30sec/routing/channel_properties/version_2021-02-XX/maps_covered_with_zero/channel_parameters_30sec_february_2021_global_covered_with_zero.nc
#~ # - if channelNC is None, the following must be defined
#~ dem_floodplain = global_30sec/routing/channel_properties/
#~ bankfull_width = global_30sec/routing/channel_properties/
#~ bankfull_depth = global_30sec/routing/channel_properties/
#~ gradient       = global_30sec/routing/channel_properties/
#~ dem_riverbed   = global_30sec/routing/channel_properties/

# the manning coefficient used for converting discharge values to surface water elevation values
manningsN = 0.04
#
# - minimum channel gradient (m.m-1, optional) - this is recommended to avoid too high surface water level
minimumChannelGradient = 0.00005
# - minimum channel width (m, optional) - this is recommended, not only to avoid too high surface water level, but also to set minimum river bed conductance 
minimumChannelWidth    = 5.0 

# option to exclude river infiltration
minimumWidthOfRiversWithInfiltration = 10.0
# - TODO: Please check whether we have to activate this (e.g. please check Jarno's run and your HESS paper for the Rhine-Meuse).

# lakes and reservoir parameters
onlyNaturalWaterBodies = False
waterBodyInputNC       = global_30sec/routing/surface_water_bodies/version_2020-05-XX/lakes_and_reservoirs_30sec_global_2019_version_202005XX.nc

#~ sutan101@gpu038.cluster:/scratch/depfg/sutan101/data/pcrglobwb_gmglob_input/develop/global_30sec/routing/surface_water_bodies/version_2020-05-XX$ ls -lah
#~ total 233G
#~ drwxr-xr-x 3 sutan101 depfg    6 Mar  1 09:54 .
#~ drwxr-xr-x 3 sutan101 depfg    1 Jan 28 16:27 ..
#~ -r--r--r-- 1 sutan101 depfg 209G Jan 28 19:05 lakes_and_reservoirs_30sec_global_2010_to_2019_version_202005XX.nc
#~ -r--r--r-- 1 sutan101 depfg  21G Jan 28 19:09 lakes_and_reservoirs_30sec_global_2019_version_202005XX.nc
#~ -r--r--r-- 1 sutan101 depfg 1.8G Jan 28 19:10 lddsound_30sec_version_202005XX_correct_lat.nc
#~ -r--r--r-- 1 sutan101 depfg 890M Jan 28 19:09 lddsound_30sec_version_202005XX.map
#~ -r--r--r-- 1 sutan101 depfg 891M Jan 28 19:10 lddsound_30sec_version_202005XX.nc
#~ drwxr-xr-x 2 sutan101 depfg   19 Mar  1 10:19 maps

# drainage direction map
lddMap      = global_30sec/routing/surface_water_bodies/version_2020-05-XX/lddsound_30sec_version_202005XX_correct_lat.nc


# cell area (unit: m2)
cellAreaMap = others/estimate_cell_dimension/30sec/cdo_grid_area_30sec_map_correct_lat.nc

#~ # cell area (unit: m2) - THIS somehow does not work
#~ cellAreaMap = global_30sec/others/estimate_cell_dimension/30sec/cdo_gridarea_30sec.nc



# option to ignore negative capillary rise during MODFLOW simulation
ignoreCapRise = True

doNotExtrapolateParameters = True

# some parameters for the PCG solver (optional)
#~ DAMP              = 1.00,0.75
#~ DAMP              = 0.75
#~ DAMP_steady_state = 0.75,0.60
#~ DAMP_steady_state = 0.60
# - for steady-state model, please do not use too many RCLOSE
#~ RCLOSE = 1e4,1e5,1e9
#~ HCLOSE = 0.001,0.01,0.1,0.2,0.5,1.0


# the following options were used for Jorge's run
#~ DAMP              = 0.75
#~ DAMP_steady_state = 0.75,0.60
#~ HCLOSE            = 0.001,0.001,0.005,0.01,0.1,0.5,1.0
#~ RCLOSE            = 0.01,0.1,1,100,10000,100000,10000000

DAMP              = 0.75
DAMP_steady_state = 0.75,0.60
#~ HCLOSE         = 0.001,0.005,0.01,0.1,0.5,1.0
HCLOSE            = 0.001,0.01,0.1
RCLOSE            = 10,100,10000,100000,10000000


#~ # pre-factors to adjust several values:
#~ linear_multiplier_for_storage_coefficients    = 1.0
#~ log_10_multiplier_for_transmissivities        = 0.0
#~ linear_multiplier_for_groundwater_recharge    = 1.0
#~ linear_multiplier_for_groundwater_abstraction = 1.0

#~ # pre-factor to include aquitards
#~ log_10_multiplier_for_resistance_values       = 0.0
#~ log_10_multiplier_for_resistance_values       = 0.69897


#~ log_10_multiplier_for_transmissivities     = LOG_10_FACTOR_FOR_KD
#~ log_10_multiplier_for_resistance_values    = LOG_10_FACTOR_FOR_RESISTANCE
#~ linear_multiplier_for_storage_coefficients = LINEAR_FACTOR_FOR_STORAGE_COEF


#~ # pre-factors to adjust several values:
#~ log_10_multiplier_for_transmissivities        = 0.0
#~ log_10_multiplier_for_resistance_values       = 1.0
#~ linear_multiplier_for_storage_coefficients    = 1.0
#~ linear_multiplier_for_groundwater_recharge    = 1.0
#~ linear_multiplier_for_groundwater_abstraction = 1.0


#~ # pre-factors to adjust several values:
#~ log_10_multiplier_for_transmissivities      = LOG_10_FACTOR_FOR_KD
#~ log_10_multiplier_for_resistance_values     = LOG_10_FACTOR_FOR_RESISTANCE
#~ linear_multiplier_for_groundwater_recharge  = LINEAR_FACTOR_FOR_GW_RECHARGE

log_10_multiplier_for_transmissivities      = 0.0
log_10_multiplier_for_resistance_values     = 0.0
linear_multiplier_for_groundwater_recharge  = 1.0


#~ log_10_multiplier_for_river_bed_conductance = LOG_10_FACTOR_FOR_RIVER_BED_CONDUCTANCE
log_10_multiplier_for_river_bed_conductance    = 0.0



#~ # option to use multiple drains
#~ multiple_drains = True
#~ varying_drain_conductances = True


# option to use multiple drains
multiple_drains = False
varying_drain_conductances = False


# files for relative elevation values (above minimum dem) 
#~ relativeElevationLevels = 0.0, 0.10, 0.20, 0.30, 0.40, 0.50, 0.70, 1.00
relativeElevationLevels    = 0.0, 0.01, 0.05, 0.10, 0.20, 0.30, 0.40, 0.50, 0.60, 0.70, 0.80, 0.90, 1.00
relativeElevationFiles     = global_30sec/landSurface/topography/merit_dem_processed/version_2021-02-XX/maps_covered_with_zero/dzRel%04d_topography_parameters_30sec_february_2021_global_covered_with_zero.nc


#~ # option to use modflow6
#~ using_modflow6 = True


#######################################################################################################################################################
[modflowSteadyStateInputOptions]

# The following input maps used for the steady state run
# - average discharge (unit: m3/s) - TODO: Replace with the naturalized version from the Aqueduct run. 
#~ avgDischargeInputMap              = /projects/0/einf321/edwinmod/data/pcrglobwb_gmglob_input/develop/example_output/pcrglobwb/discharge_30sec_gmd_paper/average_1960-2010/average_discharge_m3_per_second_1960_2010_correct_lat.nc
# - average runoff (unit: m/day)
avgRunoffInputMap                 = None
# - average groundwater recharge (unit: m/day) - TODO: Replace with the naturalized version from the Aqueduct run. 
#~ avgGroundwaterRechargeInputMap    = /projects/0/einf321/edwinmod/data/pcrglobwb_gmglob_input/develop/example_output/pcrglobwb/global_05min_gmd_paper_output/average_1960-2010/average_gwRecharge_m_per_day_1960_to_2010_without_time_correct_lat.nc
# - average groundwater abstraction (unit: m/day)
avgGroundwaterAbstractionInputMap = 0.0
# - average channel storage (unit: m3) - optional
avgChannelStorageInputMap         = None


#~ # - using the files prepare by Barry (from the Aqueduct run with W5E5 forcing)
#~ avgDischargeInputMap           = /scratch-shared/barryData_globgm/steady_state/average_discharge_m3_per_second.nc
#~ avgGroundwaterRechargeInputMap = /scratch-shared/barryData_globgm/steady_state/average_gwRecharge_m_per_day.nc


avgDischargeInputMap           = /scratch-shared/edwin/discharge_30sec_w5e5_aqueduct_2021/timavg_monthly_discharge_30sec_w5e5_aqueduct_2021_1979_to_2019.map
avgGroundwaterRechargeInputMap = /projects/0/dfguu/users/edwin/data/arfan_files_thesis/groundwater_recharge/average_gwRecharge_mperday.map


# saturated area fraction map
satAreaFracInputMap = /scratch-shared/otoo0001/test_sat_area_frac/test_06_18/estimateSatAreaFrac_time_avg.map


# estimateDischargeFromRunoff = True

# initial estimate for groundwater head (unit: m)
usingInitialHeadEstimate = False
groundwaterHeadLayer1Estimate = None
groundwaterHeadLayer2Estimate = None

# option to ignore negative capillary rise during a steady state simulation
ignoreCapRiseSteadyState = True

# option to introduce extra spin-up years (using transient simulation with constant input with 365 * 10 day stress period)
extraSpinUpYearsWith10YearStressPeriod = 0

# option to introduce extra spin-up years (using transient simulation with constant input with 365 day stress period)
extraSpinUpYearsWith365DayStressPeriod = 0

# option to introduce extra spin-up years (using transient simulation with constant input with 30 day stress period)
extraSpinUpYearsWith30DayStressPeriod  = 0



[modflowTransientInputOptions]

# the following is None for an online coupling between PCR-GLOBWB and MODFLOW
#
# - global extent, with discharge
dischargeInputNC               = discharge_30sec_monthAvg_1958-01-31_to_2015-12-31.nc
runoffInputNC                  = None
groundwaterRechargeInputNC     = gwRecharge_monthTot_output_1958-01-31_to_2015-12-31_zip.nc
groundwaterAbstractionInputNC  = totalGroundwaterAbstraction_monthTot_output_1958-01-31_to_2015-12-31_zip.nc
channelStorageInputNC          = None
satAreaFracInputNC             = None
#

valuesRechargeAndAbstractionInMonthlyTotal = True

# estimateDischargeFromRunoff = True
# valuesRunoffInMonthlyTotal  = True

# initial conditions for groundwater head (unit: m)
groundwaterHeadLayer1Ini = None
groundwaterHeadLayer2Ini = None

usingPredefinedInitialHead = False
# - if False, the initial groundwater head(s) will be based on the steady state simulation using the input defined in modflowSteadyStateInputOptions
# - if True , the following initial conditions of the groundwater head will be based on the steady state simulation using the input defined in modflowSteadyStateInputOptions
# - Note: For the online coupling PCR-GLOBWB-MODFLOW, we have to first define the initial conditions of groundwater head (usingPredefinedInitialHead = True)


# - satAreaFrac input, this is required for estimating drain elevation (surface water height)
#~ satAreaFracInputNC                = /scratch/depfg/otoo0001/test_australia_w5e5/netcdf/satAreaFrac_monthAvg_output.nc
# - additional input files that are also required
# --- files for relative elevation (above minimum dem) - NOTE that this should be at the SAME RESOLUTION AS satAreaFracInputNC
relativeElevationFiles  = /projects/0/dfguu/users/edwin/data/pcrglobwb_input_arise/develop/global_05min/landSurface/topography/version_202104XX_from_merit_dem/maps_covered_with_zero/dzRel%04d_topography_parameters_5min_april_2021_global_covered_with_zero.nc
relativeElevationLevels = 0.0, 0.01, 0.05, 0.10, 0.20, 0.30, 0.40, 0.50, 0.60, 0.70, 0.80, 0.90, 1.00
minimumDEM              = /projects/0/dfguu/users/edwin/data/pcrglobwb_input_arise/develop/global_05min/landSurface/topography/version_202104XX_from_merit_dem/maps_covered_with_zero/dem_minimum_topography_parameters_5min_april_2021_global_covered_with_zero.nc


[reportingForModflowOptions]

# output files from modflow calculation that will be written in the disk in netcdf files:
outMonthEndNC = None
outAnnuaEndNC = None

# At this moment, we cannot report the following.
outDailyTotNC = None
outMonthTotNC = None
outMonthAvgNC = None
outAnnuaTotNC = None
outAnnuaAvgNC = None
outMonthMaxNC = None
outAnnuaMaxNC = None

# option to make/copy backup of modflow files
make_backup_of_modflow_files = False
